<?xml version="1.0" encoding="UTF-8"?>

<!-- generated on 2025-02-07 07:53:56 by Eclipse SUMO netedit Version 1.22.0
-->

<routes xmlns:xsi="http://www.w3.org/2001/XMLSchema-instance" xsi:noNamespaceSchemaLocation="http://sumo.dlr.de/xsd/routes_file.xsd">
    <!-- Routes -->
    <route id="r_0" edges="721775911#8 565150850#4 565150850#5 565150850#6 565150850#7 161262522#21 161262522#24 161262522#25 161262522#26 161262522#27 161262522#28 161262522#29 399503147#11 399503147#12 399503147#14 737754506#1 737754506#3 737754506#4 737754506#5 737754506#6 737754506#7 737754506#8 737754506#9 737754506#14 737754506#15 737754506#16 737754506#17 737754506#18 737754506#19 737754506#20 1182542569 1182554822#0 368956930#6 368956930#8 154903771#0 154903771#1 569132721 154903799 403081171#0 -157934961#9 -157934961#8 -157934961#5 -157934961#4 -157934961#3 -157934961#2 -157934961#1 551482198#5 551482198#6 551482198#7 489415618 551482197 694838047 345086758#0 345086758#1 345086758#2 345086758#3 704169274 704169276#1 704169276#2 704169277#0 704169277#1 1073693259 368049485#0 368049485#1 368049485#2 368049485#3 657043795#2 657043795#3 730900593 730900592 730900591#0 730900591#1 730900591#2 551527454#0 551527454#1 551527454#2 551527454#3 551527454#5 551527458#1 551527458#2 551527458#3 551527458#4 551527458#5 460747204#2 460747204#3 156059348 246793444#0 246793444#1 246793444#2 246793444#3"/>
    <!-- Vehicles, persons and containers (sorted by depart) -->
    <vehicle id="v_0" depart="0.00" route="r_0"/>
</routes>
